// Begin netlistHeader
// This section is used to generate the input.scs and initialize the
// simulation.
// Includes should go here, but little else is required.
// NOTE: global ground is being defined as 'GND' here, so use 'GND' for
// ground in your sensitivity lists for instantiated cells.

simulator lang=spectre
global GND

// This line is an example of how to include a testbench generated
// from bitgen. (Must be exported from bitgen as a spectre file.)
// include "../testbench.spectre"

// End netlistHeader
